/*--------------------------------*- C++ -*----------------------------------*\
  =========                 |
  \\      /  F ield         | OpenFOAM: The Open Source CFD Toolbox
   \\    /   O peration     | Website:  https://openfoam.org
    \\  /    A nd           | Version:  13
     \\/     M anipulation  |
\*---------------------------------------------------------------------------*/
FoamFile
{
    format      ascii;
    class       polyBoundaryMesh;
    location    "constant/polyMesh";
    object      boundary;
}
// * * * * * * * * * * * * * * * * * * * * * * * * * * * * * * * * * * * * * //

6
(
    inlet
    {
        type            patch;
        nFaces          40;
        startFace       13434;
    }
    outlet
    {
        type            patch;
        nFaces          72;
        startFace       13474;
    }
    top
    {
        type            symmetryPlane;
        inGroups        List<word> 1(symmetryPlane);
        nFaces          70;
        startFace       13546;
    }
    bottom
    {
        type            symmetryPlane;
        inGroups        List<word> 1(symmetryPlane);
        nFaces          70;
        startFace       13616;
    }
    cylinder
    {
        type            wall;
        inGroups        List<word> 1(wall);
        nFaces          80;
        startFace       13686;
    }
    frontAndBack
    {
        type            empty;
        inGroups        List<word> 1(empty);
        nFaces          13600;
        startFace       13766;
    }
)

// ************************************************************************* //
