/*--------------------------------*- C++ -*----------------------------------*\
  =========                 |
  \\      /  F ield         | OpenFOAM: The Open Source CFD Toolbox
   \\    /   O peration     | Website:  https://openfoam.org
    \\  /    A nd           | Version:  13
     \\/     M anipulation  |
\*---------------------------------------------------------------------------*/
FoamFile
{
    format      ascii;
    class       polyBoundaryMesh;
    location    "constant/polyMesh";
    object      boundary;
}
// * * * * * * * * * * * * * * * * * * * * * * * * * * * * * * * * * * * * * //

6
(
    inlet
    {
        type            patch;
        nFaces          80;
        startFace       42564;
    }
    outlet
    {
        type            patch;
        nFaces          112;
        startFace       42644;
    }
    top
    {
        type            symmetryPlane;
        inGroups        List<word> 1(symmetryPlane);
        nFaces          140;
        startFace       42756;
    }
    bottom
    {
        type            symmetryPlane;
        inGroups        List<word> 1(symmetryPlane);
        nFaces          140;
        startFace       42896;
    }
    cylinder
    {
        type            wall;
        inGroups        List<word> 1(wall);
        nFaces          160;
        startFace       43036;
    }
    frontAndBack
    {
        type            empty;
        inGroups        List<word> 1(empty);
        nFaces          42880;
        startFace       43196;
    }
)

// ************************************************************************* //
